LAMMPS (2 Aug 2023 - Update 3)
#3D Poiseuille Flow Lammps MD Simulation Example

dimension           3
boundary            p p p

atom_style          atomic
neighbor            0.3 bin
neigh_modify        delay 5

#geometry
lattice             fcc 0.65
Lattice spacing in x,y,z = 1.8325207 1.8325207 1.8325207
region              box block 0 10.0 -10.0 7.5 0 10.0 units box
create_box          2 box
Created orthogonal box = (0 -10 0) to (10 7.5 10)

#create atomic lattices

mass                1 1.0
mass                2 1.0

region              1 block INF INF -10.0 -7.5 INF INF units box #wall region
region              20 block INF INF -10.0 -9.16667 INF INF units box
region              21 block INF INF -9.16667 -8.33333 INF INF units box
region              22 block INF INF -8.33333 -7.5 INF INF units box
region              2 intersect 2 1 box side out units box #Flow region

lattice             fcc 0.65
Lattice spacing in x,y,z = 1.8325207 1.8325207 1.8325207
create_atoms        1 region 2 #creates type 1 atoms in flow region
Created 1029 atoms

lattice             fcc 0.85
Lattice spacing in x,y,z = 1.6757672 1.6757672 1.6757672
create_atoms        2 region 1 #creates type 2 atoms in wall region
Created 216 atoms

group               wall region 1
216 atoms in group wall
group               first region 20
72 atoms in group first
group               second region 21
72 atoms in group second
group               third region 22
72 atoms in group third
group               flow subtract all wall #flow is all atoms but wall atoms
1029 atoms in group flow

#potential calculation

pair_style          lj/cut 1.12246
pair_coeff          * * 1.0 1.0 1.12246

#energy minimization
min_style cg
minimize            1.0e-4 1.0e-6 100 100
Generated 0 of 1 mixed pair_coeff terms from geometric mixing rule
Step          Temp          E_pair         E_mol          TotEng         Press
0   0              698142.53      0              698142.53      1986899.6
Loop time of 0.00695417 on 1 procs for 28 steps with 1245 atoms

Minimization stats:
  Stopping criterion = max force evaluations
  Energy initial, next-to-last, final =
  Force two-norm initial, final = 3.9167951e+10 14.526982
  Force max component initial, final = 1.8841958e+10 1.332382
  Final line search alpha, max atom move = 7.3159281e-05 9.7476108e-05
  Iterations, force evaluations = 28 102

#initial velocities
velocity            all create 300.0 12345
compute             mobile flow temp
compute             stationary wall temp
fix                 1 all nve

#Poiseuille flow
fix                 2 flow addforce 0.1 0.0 0.0

#wall
fix                 7 wall temp/rescale 1 0.722 0.722 0.0001 1.0
fix                 5 wall spring/self 57.1

fix                 20 first recenter NULL INIT NULL
fix                 21 second recenter NULL INIT NULL
fix                 22 third recenter NULL INIT NULL

#run
timestep            0.0001
thermo              1000
thermo_modify       temp mobile

dump                1 flow custom 1000 output/poiseuille/3D_poi.*.lammpstrj id type x y z vx vy vz
dump                2 all atom 25 output/vmd/vmd_poi.*.flow

run 1000000
Generated 0 of 1 mixed pair_coeff terms from geometric mixing rule
Step          Temp          E_pair         E_mol          TotEng         Press
28   300.55567     -0.92814933     0              371.32634      176.70571
Averages over the last 501 of 1002 rows, steps 501000 to 1000028:
Temp E_pair E_mol TotEng Press
1.48043 -1.09767 0 0.735924 3.61689
Loop time of 75.3037 on 1 procs for 1000000 steps with 1245 atoms
